%chk=E:\hetanjin\GithubFiles\DBGCWebapp\demoForLocal\python\Gjfs\apple_004.chk
# hf/3-21g geom=connectivity

Title Card Required

0 1
 C                 -2.88851351   -1.11486485    0.00000000
 C                 -4.42851351   -1.11484587    0.00000000
 H                 -4.78516743   -0.10603569    0.00000189
 H                 -4.78518607   -1.61924296   -0.87365225
 H                 -4.78518658   -1.61924581    0.87365040
 C                 -2.37519780   -2.56679700    0.00000000
 H                 -2.73187001   -3.07119497   -0.87365189
 H                 -1.30519780   -2.56680965    0.00000116
 H                 -2.73187133   -3.07119598    0.87365077
 C                 -2.37517129   -0.38890857    1.25740497
 H                 -1.30517131   -0.38909115    1.25750243
 H                 -2.73166635    0.61995775    1.25730739
 H                 -2.73200355   -0.89319438    2.13105625
 C                 -2.37517129   -0.38890857   -1.25740497
 H                 -2.73024629   -0.89443565   -2.13105486
 H                 -2.73342186    0.61933523   -1.25838411
 C                 -0.83517384   -0.38648878   -1.25599751
 C                 -0.32413981    0.34878875   -0.00307646
 H                 -1.06534984    1.04548115    0.32877801
 H                 -0.12966213   -0.36173516    0.77296105
 H                  0.57766152    0.87349471   -0.24043276
 C                 -0.32181543    0.33173782   -2.51782701
 H                  0.74777266    0.30600030   -2.53262260
 H                 -0.70250692   -0.16058279   -3.38822600
 H                 -0.65402810    1.34882337   -2.50935774
 C                 -0.31956946   -1.83757311   -1.24568155
 H                 -0.16850562   -2.15523377   -0.23515129
 H                 -1.03875255   -2.47498193   -1.71619794
 H                  0.60679427   -1.89072411   -1.77852787

 1 2 1.0 6 1.0 10 1.0 14 1.0
 2 3 1.0 4 1.0 5 1.0
 3
 4
 5
 6 7 1.0 8 1.0 9 1.0
 7
 8
 9
 10 11 1.0 12 1.0 13 1.0
 11
 12
 13
 14 15 1.0 16 1.0 17 1.0
 15
 16
 17 18 1.0 22 1.0 26 1.0
 18 19 1.0 20 1.0 21 1.0
 19
 20
 21
 22 23 1.0 24 1.0 25 1.0
 23
 24
 25
 26 27 1.0 28 1.0 29 1.0
 27
 28
 29

