%chk=E:\hetanjin\GithubFiles\DBGCWebapp\demoForLocal\python\Gjfs\apple_023.chk
# hf/3-21g geom=connectivity

Title Card Required

0 1
 C                 -4.00337837   -0.43918918    0.00000000
 H                 -3.47021463   -1.36689410    0.00000000
 H                 -5.07337837   -0.43918918    0.00000000
 C                 -3.32810407    0.73578811    0.00000000
 H                 -3.86126781    1.66349303    0.00000000
 C                 -1.78810407    0.73578811    0.00000000
 H                 -1.43143772    0.22969199   -0.87267166
 H                 -1.43143721    0.23308032    0.87462771
 C                 -1.27477119    2.18771147   -0.00281518
 H                 -1.63130601    2.69376034    0.86993762
 H                 -1.63157019    2.69046638   -0.87736191
 C                  0.26522879    2.18771102   -0.00304852
 H                  0.62176275    1.68175528   -0.87585567
 H                  0.62202801    1.68486235    0.87144420
 C                  0.77856169    3.63963467   -0.00570778
 H                  0.42349267    4.14186940   -0.88125690
 H                  0.42029869    4.14619941    0.86603747
 C                  2.31855912    3.63964071   -0.00289224
 H                  2.67682132    3.13258735   -0.87435371
 H                  2.67362728    3.13789571    0.87293797
 C                  2.83189350    5.09156211   -0.00636438
 H                  2.47362348    5.59861732    0.86509280
 H                  2.47683255    5.59330479   -0.88219884
 C                  4.37189090    5.09156819   -0.00353655
 H                  4.73016006    4.58450337   -0.87498849
 H                  4.72695208    4.58983471    0.87230309
 C                  4.88522532    6.54348954   -0.00702369
 H                  4.52696536    7.05055022    0.86443444
 H                  4.53015430    7.04522676   -0.88285720
 C                  6.42522275    6.54349557   -0.00421360
 H                  6.78348186    6.03643479   -0.87567203
 H                  6.78029400    6.04175800    0.87161961
 C                  6.93855716    7.99541693   -0.00769989
 H                  6.58030152    8.50247558    0.86376119
 H                  8.00855539    7.99542110   -0.00575271
 H                  6.58348183    8.49715619   -0.88353048

 1 2 1.0 3 1.0 4 2.0
 2
 3
 4 5 1.0 6 1.0
 5
 6 7 1.0 8 1.0 9 1.0
 7
 8
 9 10 1.0 11 1.0 12 1.0
 10
 11
 12 13 1.0 14 1.0 15 1.0
 13
 14
 15 16 1.0 17 1.0 18 1.0
 16
 17
 18 19 1.0 20 1.0 21 1.0
 19
 20
 21 22 1.0 23 1.0 24 1.0
 22
 23
 24 25 1.0 26 1.0 27 1.0
 25
 26
 27 28 1.0 29 1.0 30 1.0
 28
 29
 30 31 1.0 32 1.0 33 1.0
 31
 32
 33 34 1.0 35 1.0 36 1.0
 34
 35
 36

