%chk=E:\hetanjin\GithubFiles\DBGCWebapp\demoForLocal\python\Gjfs\apple_034.chk
# hf/3-21g geom=connectivity

Title Card Required

0 2
 C                 -3.37108823    0.06942230    0.15879635
 H                 -3.01442188   -0.43514995   -0.71475729
 C                 -2.85775535    1.52134836    0.15851526
 H                 -3.21601873    2.02648415    1.03108914
 H                 -3.21282401    2.02501690   -0.71620998
 C                 -1.31775793    1.52134981    0.16133044
 H                 -0.95949583    1.01580429   -0.71100666
 H                 -0.96268947    1.01809106    1.03629159
 C                 -0.80442381    2.97327514    0.16036899
 H                 -1.16269393    3.47882259    1.03270167
 H                 -1.15948484    3.47653151   -0.71459654
 C                  0.73557360    2.97327661    0.16319684
 H                  1.09384286    2.46772601   -0.70913436
 H                  1.09063486    2.47002295    1.03816384
 C                  1.24890772    4.42520193    0.16223117
 H                  0.89064479    4.93074939    1.03456679
 H                  0.89383949    4.92845830   -0.71273145
 C                  2.78890515    4.42520339    0.16504634
 H                  3.14716724    3.91965786   -0.70729075
 H                  3.14397361    3.92194464    1.04000749
 C                  3.30223927    5.87712871    0.16408489
 H                  2.94397920    6.38267262    1.03642375
 H                  4.37223749    5.87712972    0.16603737
 H                  2.94716816    6.38038865   -0.71087451
 C                 -4.76002823    0.06942230    0.15879635
 C                 -5.45039058   -1.13180818    0.15879635
 H                 -6.53918977   -1.13180864    0.16011918
 H                 -4.90785989   -2.07581250    0.15747806
 H                 -5.45742036    0.90451921    0.15996657

 1 2 1.0 3 1.0 25 1.5
 2
 3 4 1.0 5 1.0 6 1.0
 4
 5
 6 7 1.0 8 1.0 9 1.0
 7
 8
 9 10 1.0 11 1.0 12 1.0
 10
 11
 12 13 1.0 14 1.0 15 1.0
 13
 14
 15 16 1.0 17 1.0 18 1.0
 16
 17
 18 19 1.0 20 1.0 21 1.0
 19
 20
 21 22 1.0 23 1.0 24 1.0
 22
 23
 24
 25 26 2.0 29 1.0
 26 27 1.0 28 1.0
 27
 28
 29

