%chk=E:\hetanjin\GithubFiles\DBGCWebapp\demoForLocal\python\Gjfs\apple_007.chk
# hf/3-21g geom=connectivity

Title Card Required

0 1
 C                 -4.44256756   -0.13513513    0.00000000
 H                 -4.08591314   -1.14394514    0.00000000
 H                 -4.08589472    0.36926306   -0.87365150
 H                 -5.51256756   -0.13512195    0.00000000
 C                 -3.92922534    0.59082114    1.25740497
 H                 -4.28587998    1.59963107    1.25740510
 H                 -4.28589804    0.08642248    2.13105626
 C                 -2.38922534    0.59080197    1.25740459
 H                 -2.03257156   -0.41800636    1.25936086
 H                 -2.03255244    1.09350502    0.38277663
 C                 -1.87588310    1.31919603    2.51339895
 H                 -2.23292123    0.81675105    3.38802619
 H                 -2.23217217    2.32813277    2.51121874
 C                 -0.33588324    1.31862040    2.51372134
 H                  0.02115404    1.82104773    1.63908361
 H                  0.02040607    0.30968379    2.51592171
 C                  0.17745902    2.04703938    3.76970124
 H                 -0.17958198    1.54461379    4.64433845
 H                 -0.17882717    3.05597709    3.76749925
 C                  1.71745888    2.04645937    3.77002618
 H                  2.07449904    2.54889078    2.89539197
 H                  2.07374531    1.03752172    3.77222125
 C                  2.23080114    2.77486956    5.02601118
 H                  1.87376157    2.27243683    5.90064487
 H                  1.87451350    3.78380677    5.02381713
 C                  3.77080099    2.77429174    5.02633484
 H                  4.12783972    3.27672721    4.15170238
 H                  4.12708886    1.76535459    5.02852552
 C                  4.28414325    3.50269755    6.28232238
 H                  3.92710512    3.00026075    7.15695432
 H                  5.35414315    3.50229760    6.28254638
 H                  3.92785418    4.51163427    6.28013273

 1 2 1.0 3 1.0 4 1.0 5 1.0
 2
 3
 4
 5 6 1.0 7 1.0 8 1.0
 6
 7
 8 9 1.0 10 1.0 11 1.0
 9
 10
 11 12 1.0 13 1.0 14 1.0
 12
 13
 14 15 1.0 16 1.0 17 1.0
 15
 16
 17 18 1.0 19 1.0 20 1.0
 18
 19
 20 21 1.0 22 1.0 23 1.0
 21
 22
 23 24 1.0 25 1.0 26 1.0
 24
 25
 26 27 1.0 28 1.0 29 1.0
 27
 28
 29 30 1.0 31 1.0 32 1.0
 30
 31
 32

