%chk=E:\hetanjin\GithubFiles\DBGCWebapp\demoForLocal\python\Gjfs\apple_026.chk
# hf/3-21g geom=connectivity

Title Card Required

0 1
 C                 -1.03040540   -0.27027027    0.00000000
 C                 -0.35513110    0.90470703    0.00000000
 C                 -0.26304824   -1.60547174    0.00000000
 H                  0.35201184   -1.66336219    0.87364169
 H                  0.35198283   -1.66337945   -0.87366097
 C                 -1.12248826    2.23990850    0.00000000
 H                 -1.73900175    2.29696367    0.87267166
 H                 -1.73606427    2.29865245   -0.87462771
 C                 -1.26610290   -2.77400986    0.00002769
 H                 -0.73293918   -3.70171476   -0.00019281
 H                 -1.88098908   -2.71622615    0.87379884
 H                 -1.88130777   -2.71599466   -0.87350377
 C                 -0.11943596    3.40844526    0.00281518
 H                  0.49704106    3.35142035   -0.86988422
 H                 -0.65259980    4.33615013    0.00287059
 H                  0.49417653    3.34967037    0.87741522
 C                 -2.57040540   -0.27027027    0.00000000
 C                  1.18486890    0.90470703    0.00000000
 C                  1.69820251   -0.54573069   -0.06571940
 H                  1.37332431   -1.07877621    0.80331261
 H                  1.31044064   -1.02195458   -0.94193372
 H                  2.76750932   -0.54423249   -0.10419924
 C                  1.69820178    1.68684054   -1.22325653
 H                  2.07244719    2.63806967   -0.90702321
 H                  2.48285647    1.13420752   -1.69634612
 H                  0.89596783    1.83167462   -1.91632491
 C                  1.69820178    1.57301117    1.28897592
 H                  2.48150436    0.97883362    1.71122006
 H                  2.07426870    2.54816463    1.05973935
 H                  0.89549844    1.65637625    1.99155518
 C                 -3.08373828   -0.97842266    1.26752102
 H                 -3.82984741   -0.37223249    1.73736636
 H                 -3.50821391   -1.92372247    1.00082135
 H                 -2.26981967   -1.13134077    1.94505520
 C                 -3.08373828   -1.01389915   -1.24703867
 H                 -3.45639316   -1.97521258   -0.96084845
 H                 -3.86957086   -0.44763033   -1.70168883
 H                 -2.28191697   -1.13553155   -1.94502731
 C                 -3.08373901    1.18151108   -0.02048236
 H                 -2.73600933    1.69510497    0.85141522
 H                 -2.71819107    1.67675624   -0.89570058
 H                 -4.15368337    1.18137682   -0.03139296

 1 2 2.0 3 1.0 17 1.0
 2 6 1.0 18 1.0
 3 4 1.0 5 1.0 9 1.0
 4
 5
 6 7 1.0 8 1.0 13 1.0
 7
 8
 9 10 1.0 11 1.0 12 1.0
 10
 11
 12
 13 14 1.0 15 1.0 16 1.0
 14
 15
 16
 17 31 1.0 35 1.0 39 1.0
 18 19 1.0 23 1.0 27 1.0
 19 20 1.0 21 1.0 22 1.0
 20
 21
 22
 23 24 1.0 25 1.0 26 1.0
 24
 25
 26
 27 28 1.0 29 1.0 30 1.0
 28
 29
 30
 31 32 1.0 33 1.0 34 1.0
 32
 33
 34
 35 36 1.0 37 1.0 38 1.0
 36
 37
 38
 39 40 1.0 41 1.0 42 1.0
 40
 41
 42

