%chk=E:\hetanjin\GithubFiles\DBGCWebapp\demoForLocal\python\Gjfs\apple_016.chk
# hf/3-21g geom=connectivity

Title Card Required

0 1
 C                 -2.04391892   -0.60810810    0.00000000
 C                 -1.53057670    0.11784817    1.25740497
 C                 -1.53060320   -2.06004025    0.00000000
 H                 -1.88724670   -2.56442807    0.87366947
 H                 -0.46060320   -2.06005344   -0.00003594
 C                 -3.58391892   -0.60808912    0.00000000
 H                 -3.94057284    0.40071916    0.00195626
 H                 -3.94059201   -1.11418065    0.87267157
 C                 -1.53057670    0.11784817   -1.25740497
 H                 -1.88736790    1.12660981   -1.25748874
 H                 -0.46057671    0.11797971   -1.25732108
 C                 -2.04414836   -0.60794635    2.51480962
 H                 -1.68768503   -1.61682389    2.51488743
 H                 -3.11414833   -0.60773073    2.51473151
 C                 -2.04366304    1.56986139    1.25726452
 H                 -1.68590398    2.07441840    0.38414901
 H                 -3.11366241    1.57040210    1.25623918
 C                  0.00942327    0.11758541    1.25754524
 H                  0.36625522    0.62160984    0.38374302
 H                  0.36591796   -0.89128098    1.25794428
 C                 -2.04372214   -0.60824775   -2.51480962
 H                 -3.11372213   -0.60833847   -2.51491674
 H                 -1.68701023   -0.10387664   -3.38846081
 H                 -1.68696999   -1.61702319   -2.51470222
 C                 -4.09726071   -1.33160646   -1.25881010
 H                 -4.99930809   -1.85749475   -1.02503240
 H                 -4.29196551   -0.61397026   -2.02821788
 H                 -3.35718087   -2.02605777   -1.59780747
 C                 -2.04398766   -2.78601146   -1.25737910
 H                 -1.23817447   -3.32199331   -1.71376552
 H                 -2.81791295   -3.47176928   -0.98228667
 H                 -2.43257760   -2.06868009   -1.94971830
 C                 -1.53116865    2.29508293    2.51543908
 H                 -0.46117419    2.29245830    2.51766727
 H                 -1.88535861    3.30476018    2.51428412
 H                 -1.89088955    1.79191777    3.38855173
 C                  0.52276558    0.84391753    2.51473311
 H                  1.42432880    0.37739954    2.85302991
 H                  0.71832047    1.86923796    2.27941141
 H                 -0.21767983    0.78977420    3.28525832
 C                 -1.53076057    0.11797846    3.77221415
 H                 -2.33650477    0.24495514    4.46471196
 H                 -0.75662607   -0.46299700    4.22837561
 H                 -1.14244652    1.07635341    3.49720568

 1 2 1.0 3 1.0 6 1.0 9 1.0
 2 12 1.0 15 1.0 18 1.0
 3 4 1.0 5 1.0 29 1.0
 4
 5
 6 7 1.0 8 1.0 25 1.0
 7
 8
 9 10 1.0 11 1.0 21 1.0
 10
 11
 12 13 1.0 14 1.0 41 1.0
 13
 14
 15 16 1.0 17 1.0 33 1.0
 16
 17
 18 19 1.0 20 1.0 37 1.0
 19
 20
 21 22 1.0 23 1.0 24 1.0
 22
 23
 24
 25 26 1.0 27 1.0 28 1.0
 26
 27
 28
 29 30 1.0 31 1.0 32 1.0
 30
 31
 32
 33 34 1.0 35 1.0 36 1.0
 34
 35
 36
 37 38 1.0 39 1.0 40 1.0
 38
 39
 40
 41 42 1.0 43 1.0 44 1.0
 42
 43
 44

