%chk=E:\hetanjin\GithubFiles\DBGCWebapp\demoForLocal\python\Gjfs\apple_019.chk
# hf/3-21g geom=connectivity

Title Card Required

0 1
 C                 -6.50337837   -1.11486485    0.00000000
 H                 -6.14670553   -0.61046666    0.87365150
 H                 -6.14670553   -0.61046666   -0.87365150
 H                 -7.57337837   -1.11485166    0.00000000
 C                 -5.99006266   -2.56679700    0.00000000
 H                 -6.34673630   -3.07119548   -0.87365101
 H                 -6.34673476   -3.07119547    0.87365165
 C                 -4.45006266   -2.56681520   -0.00000086
 H                 -4.09339084   -2.06241710   -0.87365283
 H                 -4.09338935   -2.06241592    0.87364983
 C                 -3.93674694   -4.01874736    0.00000019
 H                 -4.29341762   -4.52314448    0.87365319
 H                 -4.29342126   -4.52314710   -0.87364982
 C                 -2.39674694   -4.01876529   -0.00000302
 H                 -2.04007655   -3.51453827   -0.87375433
 H                 -2.04007239   -3.51419481    0.87354829
 C                 -1.88343097   -5.47069732    0.00028166
 H                 -2.24064548   -5.97560393   -0.87285470
 H                 -2.23948266   -5.97464337    0.87444730
 C                 -0.34343132   -5.47059490   -0.00074275
 H                  0.01261945   -4.96868617   -0.87608011
 H                  0.01378193   -4.96365456    0.87121492
 C                  0.17000079   -6.92248082    0.00309710
 H                 -0.18771862   -7.42959904   -0.86854958
 H                 -0.18554384   -7.42420938    0.87874341
 C                  1.70999959   -6.92238106    0.00118052
 H                  2.06771815   -6.41525786    0.87282466
 H                  2.06554445   -6.42065706   -0.87446831
 C                  2.22343171   -8.37426696    0.00502767
 H                  1.86570208   -8.88139315   -0.86661018
 H                  1.86789731   -8.87598749    0.88068274
 C                  3.76343049   -8.37416725    0.00309308
 H                  4.12115927   -7.86705247    0.87473791
 H                  4.11896513   -7.87243483   -0.87255508
 C                  4.27686258   -9.82605321    0.00692023
 H                  3.91913302  -10.33316737   -0.86472465
 H                  3.92132810  -10.32778582    0.88256834
 C                  5.81686136   -9.82595351    0.00498576
 H                  6.17459007   -9.31884339    0.87663334
 H                  6.17239608   -9.32421640   -0.87065968
 C                  6.33029344  -11.27783949    0.00880518
 H                  5.97256435  -11.78494884   -0.86284269
 H                  5.97475848  -11.77957693    0.88445033
 C                  7.87029222  -11.27773978    0.00687156
 H                  8.22802046  -10.77063186    0.87852060
 H                  8.22582742  -10.77600047   -0.86877243
 C                  8.38372430  -12.72962578    0.01068760
 H                  8.02599616  -13.23673276   -0.86096203
 H                  9.45372346  -12.72955650    0.00934528
 H                  8.02818838  -13.23136559    0.88633101

 1 2 1.0 3 1.0 4 1.0 5 1.0
 2
 3
 4
 5 6 1.0 7 1.0 8 1.0
 6
 7
 8 9 1.0 10 1.0 11 1.0
 9
 10
 11 12 1.0 13 1.0 14 1.0
 12
 13
 14 15 1.0 16 1.0 17 1.0
 15
 16
 17 18 1.0 19 1.0 20 1.0
 18
 19
 20 21 1.0 22 1.0 23 1.0
 21
 22
 23 24 1.0 25 1.0 26 1.0
 24
 25
 26 27 1.0 28 1.0 29 1.0
 27
 28
 29 30 1.0 31 1.0 32 1.0
 30
 31
 32 33 1.0 34 1.0 35 1.0
 33
 34
 35 36 1.0 37 1.0 38 1.0
 36
 37
 38 39 1.0 40 1.0 41 1.0
 39
 40
 41 42 1.0 43 1.0 44 1.0
 42
 43
 44 45 1.0 46 1.0 47 1.0
 45
 46
 47 48 1.0 49 1.0 50 1.0
 48
 49
 50

