%chk=E:\hetanjin\GithubFiles\DBGCWebapp\demoForLocal\python\Gjfs\apple_025.chk
# hf/3-21g geom=connectivity

Title Card Required

0 1
 C                 -0.86148649   -0.54054053    0.00000000
 H                 -1.93148649   -0.54054053    0.00000000
 C                 -0.18621218    0.63443676    0.00000000
 H                 -0.71937592    1.56214168    0.00000000
 C                 -0.09412932   -1.87574201    0.00000000
 C                  1.35378782    0.63443676    0.00000000
 C                  0.79318915   -1.95785878    1.25599473
 H                  0.69972020   -2.92877481    1.69586474
 H                  1.81363888   -1.78643600    0.98360423
 H                  0.48272158   -1.21542064    1.96118654
 C                 -1.09718162   -3.04427876    0.00281518
 H                 -1.72719718   -2.97560712   -0.85931276
 H                 -0.56421378   -3.97186538   -0.01788131
 H                 -1.69705957   -2.99726884    0.88759567
 C                  0.78896139   -1.96028937   -1.25880997
 H                  0.41704179   -1.28562249   -2.00137338
 H                  1.79460924   -1.69495002   -1.00747867
 H                  0.76880887   -2.95903957   -1.64220522
 C                  1.86712143   -0.09122547    1.25757820
 H                  1.04182644   -0.32086464    1.89871316
 H                  2.35887040   -0.99723448    0.97081939
 H                  2.55733417    0.54022907    1.77697356
 C                  1.86712070    2.08636281   -0.00034698
 H                  2.93707530    2.08637650   -0.01020309
 H                  1.50242872    2.59339490   -0.86914974
 H                  1.51852424    2.58812237    0.87807083
 C                  1.86712070   -0.09182708   -1.25723116
 H                  2.38462138   -0.98264949   -0.96821824
 H                  1.03884584   -0.34802986   -1.88430444
 H                  2.53456109    0.55058648   -1.79270118

 1 2 1.0 3 2.0 5 1.0
 2
 3 4 1.0 6 1.0
 4
 5 7 1.0 11 1.0 15 1.0
 6 19 1.0 23 1.0 27 1.0
 7 8 1.0 9 1.0 10 1.0
 8
 9
 10
 11 12 1.0 13 1.0 14 1.0
 12
 13
 14
 15 16 1.0 17 1.0 18 1.0
 16
 17
 18
 19 20 1.0 21 1.0 22 1.0
 20
 21
 22
 23 24 1.0 25 1.0 26 1.0
 24
 25
 26
 27 28 1.0 29 1.0 30 1.0
 28
 29
 30

