%chk=E:\hetanjin\GithubFiles\DBGCWebapp\demoForLocal\python\Gjfs\apple_027.chk
# hf/3-21g geom=connectivity

Title Card Required

0 1
 C                 -3.90202702    0.20270270    0.00000000
 H                 -3.36886328   -0.72500222    0.00000000
 H                 -4.97202702    0.20270270    0.00000000
 C                 -3.22675271    1.37768000    0.00000000
 H                 -3.75991646    2.30538492    0.00000000
 C                 -1.68675271    1.37768000    0.00000000
 H                 -1.33008637    0.87310775   -0.87355364
 H                 -1.33008586    0.87344646    0.87374899
 C                 -1.17341984    2.82960606   -0.00028110
 H                 -1.53168321    3.33474185    0.87229279
 H                 -1.52848850    3.33327460   -0.87500633
 C                  0.36657759    2.82960751    0.00253409
 H                  0.72483968    2.32406199   -0.86980301
 H                  0.72164605    2.32634876    0.87749524
 C                  0.87991171    4.28153284    0.00157264
 H                  0.52164159    4.78708029    0.87390532
 H                  0.52485067    4.78478921   -0.87339289
 C                  2.41990911    4.28153431    0.00440049
 H                  2.77817838    3.77598371   -0.86793071
 H                  2.77497037    3.77828065    0.87936749
 C                  2.93324324    5.73345963    0.00343481
 H                  2.57498030    6.23900709    0.87577043
 H                  2.57817501    6.23671600   -0.87152780
 C                  4.47324066    5.73346109    0.00624999
 H                  4.83150275    5.22791556   -0.86608710
 H                  4.82830913    5.23020234    0.88121114
 C                  4.98657478    7.18538641    0.00528854
 H                  4.62831472    7.69093032    0.87762740
 H                  4.63150367    7.68864635   -0.86967086
 C                  6.52657222    7.18538786    0.00809865
 H                  6.88483144    6.67984437   -0.86424080
 H                  6.88164356    6.68212708    0.88305746
 C                  7.03990633    8.63731319    0.00713889
 H                  6.68164770    9.14285558    0.87947922
 H                  6.68483378    9.14057465   -0.86781905
 C                  8.57990377    8.63731464    0.00994646
 H                  8.93816156    8.13177368   -0.86239505
 H                  8.93497656    8.13405131    0.88490322
 C                  9.09323788   10.08923997    0.00899008
 H                  8.73498069   10.59477982    0.88133247
 H                  8.73816389   10.59250398   -0.86596581
 C                 10.63323533   10.08924141    0.01179512
 H                 10.99149168    9.58370300   -0.86054845
 H                 10.98830955    9.58597554    0.88674983
 C                 11.14656943   11.54116675    0.01084211
 H                 10.78831367   12.04670406    0.88318656
 H                 12.21656766   11.54116775    0.01278931
 H                 10.79149400   12.04443330   -0.86411172

 1 2 1.0 3 1.0 4 2.0
 2
 3
 4 5 1.0 6 1.0
 5
 6 7 1.0 8 1.0 9 1.0
 7
 8
 9 10 1.0 11 1.0 12 1.0
 10
 11
 12 13 1.0 14 1.0 15 1.0
 13
 14
 15 16 1.0 17 1.0 18 1.0
 16
 17
 18 19 1.0 20 1.0 21 1.0
 19
 20
 21 22 1.0 23 1.0 24 1.0
 22
 23
 24 25 1.0 26 1.0 27 1.0
 25
 26
 27 28 1.0 29 1.0 30 1.0
 28
 29
 30 31 1.0 32 1.0 33 1.0
 31
 32
 33 34 1.0 35 1.0 36 1.0
 34
 35
 36 37 1.0 38 1.0 39 1.0
 37
 38
 39 40 1.0 41 1.0 42 1.0
 40
 41
 42 43 1.0 44 1.0 45 1.0
 43
 44
 45 46 1.0 47 1.0 48 1.0
 46
 47
 48

