%chk=E:\hetanjin\GithubFiles\DBGCWebapp\demoForLocal\python\Gjfs\apple_015.chk
# hf/3-21g geom=connectivity

Title Card Required

0 1
 C                 -5.99662162   -1.31756755    0.00000000
 H                 -5.63996719   -2.32637755    0.00000000
 H                 -5.63994878   -0.81316936   -0.87365150
 H                 -7.06662162   -1.31755436    0.00000000
 C                 -5.48327940   -0.59161127    1.25740497
 H                 -5.83993260    0.41719916    1.25740422
 H                 -5.83995353   -1.09600892    2.13105626
 C                 -3.94327940   -0.59163264    1.25740586
 H                 -3.58660555   -0.08740336    0.38365728
 H                 -3.58662654   -1.60044318    1.25760068
 C                 -3.42993718    0.13456567    2.51467106
 H                 -3.78820650   -0.36853442    3.38841781
 H                 -3.78499338    1.14393861    2.51349976
 C                 -1.88993978    0.13210936    2.51607944
 H                 -1.53167178    0.63476873    1.64207853
 H                 -1.53488381   -0.87726294    2.51775911
 C                 -1.37659621    0.85894076    3.77297820
 H                 -1.73488994    0.35629873    4.64697855
 H                 -1.73162702    1.86832188    3.77128344
 C                  0.16340110    0.85644646    3.77440858
 H                  0.52169397    1.35908113    2.90040366
 H                  0.51843213   -0.15293457    3.77611164
 C                  0.67674469    1.58328800    5.03130148
 H                  0.31845671    1.08064896    5.90530590
 H                  0.32170815    2.59266709    5.02960208
 C                  2.21674203    1.58080246    5.03272679
 H                  2.57502916    2.08344271    4.15872272
 H                  2.57177881    0.57142344    5.03442457
 C                  2.73008561    2.30764182    6.28962094
 H                  2.37180050    1.80499923    7.16362449
 H                  2.37504618    3.31701991    6.28792505
 C                  4.27008296    2.30516067    6.29104370
 H                  4.62836722    2.80780448    5.41704050
 H                  4.62512262    1.29578266    6.29273799
 C                  4.78342654    3.03199785    7.54793912
 H                  4.42514286    2.52935273    8.42194180
 H                  4.42838567    4.04137544    7.54624586
 C                  6.32342388    3.02951890    7.54936061
 H                  6.68170671    3.53216525    6.67535829
 H                  6.67846499    2.02014139    7.55105226
 C                  6.83676746    3.75635390    8.80625729
 H                  6.47848522    3.25370623    9.68025910
 H                  7.90676562    3.75463303    8.80724407
 H                  6.48172515    4.76573098    8.80456667

 1 2 1.0 3 1.0 4 1.0 5 1.0
 2
 3
 4
 5 6 1.0 7 1.0 8 1.0
 6
 7
 8 9 1.0 10 1.0 11 1.0
 9
 10
 11 12 1.0 13 1.0 14 1.0
 12
 13
 14 15 1.0 16 1.0 17 1.0
 15
 16
 17 18 1.0 19 1.0 20 1.0
 18
 19
 20 21 1.0 22 1.0 23 1.0
 21
 22
 23 24 1.0 25 1.0 26 1.0
 24
 25
 26 27 1.0 28 1.0 29 1.0
 27
 28
 29 30 1.0 31 1.0 32 1.0
 30
 31
 32 33 1.0 34 1.0 35 1.0
 33
 34
 35 36 1.0 37 1.0 38 1.0
 36
 37
 38 39 1.0 40 1.0 41 1.0
 39
 40
 41 42 1.0 43 1.0 44 1.0
 42
 43
 44

