%chk=E:\hetanjin\GithubFiles\DBGCWebapp\demoForLocal\python\Gjfs\apple_022.chk
# hf/3-21g geom=connectivity

Title Card Required

0 1
 C                 -0.65878378   -1.52027025    0.00000000
 H                 -0.12562004   -2.44797517    0.00000000
 C                  0.01649053   -0.34529295    0.00000000
 H                  1.08649053   -0.34529295    0.00000000
 C                 -2.19878378   -1.52027025    0.00000000
 C                 -0.75086664    0.98990852   -0.00000000
 C                 -2.71211739   -0.79674688    1.25880997
 H                 -3.07600055    0.17277200    0.98951052
 H                 -3.50440001   -1.36548468    1.69895263
 H                 -1.91261827   -0.69482038    1.96259413
 C                 -2.71211666   -2.97219360   -0.00281518
 H                 -3.78191810   -2.97222384   -0.02342767
 H                 -2.33871880   -3.48083673   -0.86696575
 H                 -2.37237926   -3.47232372    0.87999191
 C                 -2.71211666   -0.79187022   -1.25599473
 H                 -2.98579995    0.21040886   -1.00019385
 H                 -1.94090366   -0.77281257   -1.99745769
 H                 -3.56631260   -1.30711109   -1.64300396
 C                 -1.63580988    1.07339122   -1.25757947
 H                 -1.44691514    0.22636820   -1.88349543
 H                 -2.66609227    1.08082974   -0.96885319
 H                 -1.40928510    1.97097994   -1.79416218
 C                  0.25218799    2.15844662    0.00034952
 H                 -0.28095497    3.08613139    0.00806685
 H                  0.87211208    2.09609898    0.87023853
 H                  0.86233415    2.10501548   -0.87701402
 C                 -1.63633492    1.07308863    1.25722989
 H                 -2.66665003    1.03598400    0.97091885
 H                 -1.41595028    0.24952888    1.90382092
 H                 -1.44163213    1.99154698    1.77047941

 1 2 1.0 3 2.0 5 1.0
 2
 3 4 1.0 6 1.0
 4
 5 7 1.0 11 1.0 15 1.0
 6 19 1.0 23 1.0 27 1.0
 7 8 1.0 9 1.0 10 1.0
 8
 9
 10
 11 12 1.0 13 1.0 14 1.0
 12
 13
 14
 15 16 1.0 17 1.0 18 1.0
 16
 17
 18
 19 20 1.0 21 1.0 22 1.0
 20
 21
 22
 23 24 1.0 25 1.0 26 1.0
 24
 25
 26
 27 28 1.0 29 1.0 30 1.0
 28
 29
 30

