%chk=E:\hetanjin\GithubFiles\DBGCWebapp\demoForLocal\python\Gjfs\apple_013.chk
# hf/3-21g geom=connectivity

Title Card Required

0 1
 C                 -5.69256756   -1.11486485    0.00000000
 H                 -5.33591314   -2.12367485    0.00000000
 H                 -5.33589472   -0.61046666   -0.87365150
 H                 -6.76256756   -1.11485166    0.00000000
 C                 -5.17922534   -0.38890857    1.25740497
 H                 -5.53586417    0.61990694    1.25739542
 H                 -5.53591385   -0.89329605    2.13105626
 C                 -3.63922534   -0.38895189    1.25741853
 H                 -3.28253711    0.11543344    0.38376589
 H                 -3.28258686   -1.39776753    1.25743024
 C                 -3.12588313    0.33700723    2.51482186
 H                 -3.48415245   -0.16625908    3.38847289
 H                 -3.48093933    1.34638037    2.51384259
 C                 -1.58588573    0.33455065    2.51622978
 H                 -1.22761771    0.83739422    1.64233484
 H                 -1.23082974   -0.67482197    2.51769673
 C                 -1.07254222    1.06111714    3.77328172
 H                 -1.43083020    0.55828683    4.64717611
 H                 -1.42757882    2.07049656    3.77180320
 C                  0.46745512    1.05863137    3.77470653
 H                  0.82574224    1.56145428    2.90080754
 H                  0.82249194    0.04925204    3.77619338
 C                  0.98079865    1.78520806    5.03175257
 H                  0.62251497    1.28238180    5.90565105
 H                  0.62575774    2.79458597    5.03026850
 C                  2.52079599    1.78272886    5.03317358
 H                  2.87907882    2.28555482    4.15927457
 H                  2.87583713    0.77335104    5.03465780
 C                  3.03413953    2.50930556    6.29021961
 H                  2.67585872    2.00647727    7.16411810
 H                  2.67909575    3.51868246    6.28873729
 C                  4.57413688    2.50683075    6.29163809
 H                  4.93241684    3.00966026    5.41773995
 H                  4.92918090    1.49745393    6.29311880
 C                  5.08748041    3.23340526    7.54868538
 H                  4.72920104    2.73057443    8.42258300
 H                  4.73243519    4.24278166    7.54720569
 C                  6.62747777    3.23093265    7.55010258
 H                  6.98575627    3.73374792    6.67619565
 H                  6.98415155    3.73577564    8.42349675
 H                  6.98252321    2.22155636    7.55160002

 1 2 1.0 3 1.0 4 1.0 5 1.0
 2
 3
 4
 5 6 1.0 7 1.0 8 1.0
 6
 7
 8 9 1.0 10 1.0 11 1.0
 9
 10
 11 12 1.0 13 1.0 14 1.0
 12
 13
 14 15 1.0 16 1.0 17 1.0
 15
 16
 17 18 1.0 19 1.0 20 1.0
 18
 19
 20 21 1.0 22 1.0 23 1.0
 21
 22
 23 24 1.0 25 1.0 26 1.0
 24
 25
 26 27 1.0 28 1.0 29 1.0
 27
 28
 29 30 1.0 31 1.0 32 1.0
 30
 31
 32 33 1.0 34 1.0 35 1.0
 33
 34
 35 36 1.0 37 1.0 38 1.0
 36
 37
 38 39 1.0 40 1.0 41 1.0
 39
 40
 41

