%chk=E:\hetanjin\GithubFiles\DBGCWebapp\demoForLocal\python\Gjfs\apple_009.chk
# hf/3-21g geom=connectivity

Title Card Required

0 1
 C                 -4.51013513   -0.97972972    0.00000000
 H                 -4.15348071   -1.98853972    0.00000000
 H                 -4.15346229   -0.47533153   -0.87365150
 H                 -5.58013513   -0.97971653    0.00000000
 C                 -3.99679291   -0.25377344    1.25740497
 H                 -4.35328797    0.75509289    1.25730739
 H                 -4.35362517   -0.75805925    2.13105625
 C                 -2.45679294   -0.25403621    1.25754524
 H                 -2.09996097    0.25021698    0.38387502
 H                 -2.10029823   -1.26290266    1.25768017
 C                 -1.94345071    0.47196677    2.51492324
 H                 -2.30028908   -0.03228280    3.38859295
 H                 -2.29993965    1.48083525    2.51478507
 C                 -0.40345074    0.47169554    2.51506840
 H                 -0.04661323    0.97594459    1.64139805
 C                  0.10989149    1.19769884    3.77244622
 H                 -0.24694544    0.69344847    4.64611605
 H                 -0.24659889    2.20656681    3.77230867
 C                  1.64989146    1.19742981    3.77259011
 H                  2.00672754    1.70168139    2.89892064
 H                  2.00638206    0.18856191    3.77272605
 C                  2.16323369    1.92343091    5.02996919
 H                  1.80639819    1.41917800    5.90363815
 H                  1.80674187    2.93229838    5.02983428
 C                  3.70323366    1.92316407    5.03011182
 H                  4.06006830    2.42741820    4.15644323
 H                  4.05990650    2.42759188    5.90374622
 H                  4.05972570    0.91429668    5.03024511
 C                  0.10962712   -0.98032066    2.51526785
 H                 -0.24699622   -1.48470333    1.64158717
 H                  1.17962709   -0.98051374    2.51543303
 H                 -0.24726538   -1.48461464    3.38888980

 1 2 1.0 3 1.0 4 1.0 5 1.0
 2
 3
 4
 5 6 1.0 7 1.0 8 1.0
 6
 7
 8 9 1.0 10 1.0 11 1.0
 9
 10
 11 12 1.0 13 1.0 14 1.0
 12
 13
 14 15 1.0 16 1.0 29 1.0
 15
 16 17 1.0 18 1.0 19 1.0
 17
 18
 19 20 1.0 21 1.0 22 1.0
 20
 21
 22 23 1.0 24 1.0 25 1.0
 23
 24
 25 26 1.0 27 1.0 28 1.0
 26
 27
 28
 29 30 1.0 31 1.0 32 1.0
 30
 31
 32

