%chk=E:\hetanjin\GithubFiles\DBGCWebapp\demoForLocal\python\Gjfs\apple_029.chk
# hf/3-21g geom=connectivity

Title Card Required

0 1
 C                 -5.48759000   -1.14855020    0.15873809
 H                 -4.95442625   -2.07625512    0.15873809
 H                 -6.55759000   -1.14855020    0.15873809
 C                 -4.81231569    0.02642710    0.15873809
 H                 -5.34547943    0.95413202    0.15873809
 C                 -3.27231569    0.02642710    0.15873809
 H                 -2.91564934   -0.47814515   -0.71481555
 H                 -2.91564883   -0.47780644    1.03248708
 C                 -2.75898281    1.47835316    0.15845700
 H                 -3.11724619    1.98348895    1.03103088
 H                 -3.11405147    1.98202170   -0.71626824
 C                 -1.21898539    1.47835461    0.16127218
 H                 -0.86072329    0.97280909   -0.71106492
 H                 -0.86391693    0.97509586    1.03623333
 C                 -0.70565127    2.93027994    0.16031073
 H                 -1.06392139    3.43582739    1.03264341
 H                 -1.06071230    3.43353631   -0.71465480
 C                  0.83434614    2.93028141    0.16313858
 H                  1.19261540    2.42473081   -0.70919262
 H                  1.18940740    2.42702775    1.03810558
 C                  1.34768026    4.38220673    0.16217291
 H                  0.98941733    4.88775419    1.03450853
 H                  0.99261203    4.88546310   -0.71278971
 C                  2.88767769    4.38220819    0.16498808
 H                  3.24593978    3.87666266   -0.70734901
 H                  3.24274615    3.87894944    1.03994923
 C                  3.40101181    5.83413351    0.16402663
 H                  3.04275174    6.33967742    1.03636549
 H                  3.04594070    6.33739345   -0.71093277
 C                  4.94100925    5.83413496    0.16683674
 H                  5.29926847    5.32859147   -0.70550271
 H                  5.29608059    5.33087418    1.04179555
 C                  5.45434336    7.28606030    0.16587698
 H                  5.09608472    7.79160268    1.03821732
 H                  5.09927080    7.78932176   -0.70908095
 C                  6.99434080    7.28606175    0.16868456
 H                  7.35259858    6.78052079   -0.70365695
 H                  7.34941358    6.78279842    1.04364132
 C                  7.50767490    8.73798708    0.16772818
 H                  7.14941770    9.24352693    1.04007057
 H                  8.57767313    8.73798809    0.16967713
 H                  7.15260091    9.24125108   -0.70722771

 1 2 1.0 3 1.0 4 2.0
 2
 3
 4 5 1.0 6 1.0
 5
 6 7 1.0 8 1.0 9 1.0
 7
 8
 9 10 1.0 11 1.0 12 1.0
 10
 11
 12 13 1.0 14 1.0 15 1.0
 13
 14
 15 16 1.0 17 1.0 18 1.0
 16
 17
 18 19 1.0 20 1.0 21 1.0
 19
 20
 21 22 1.0 23 1.0 24 1.0
 22
 23
 24 25 1.0 26 1.0 27 1.0
 25
 26
 27 28 1.0 29 1.0 30 1.0
 28
 29
 30 31 1.0 32 1.0 33 1.0
 31
 32
 33 34 1.0 35 1.0 36 1.0
 34
 35
 36 37 1.0 38 1.0 39 1.0
 37
 38
 39 40 1.0 41 1.0 42 1.0
 40
 41
 42

