%chk=E:\hetanjin\GithubFiles\DBGCWebapp\demoForLocal\python\Gjfs\apple_024.chk
# hf/3-21g geom=connectivity

Title Card Required

0 1
 C                 -0.25337838   -0.67567567    0.00000000
 H                  0.27978537   -1.60338059    0.00000000
 C                  0.42189593    0.49930163    0.00000000
 H                 -0.11126782    1.42700655   -0.00000000
 C                 -1.79337838   -0.67567567    0.00000000
 C                  1.96189593    0.49930163    0.00000000
 C                  2.47522954   -0.22422174    1.25880997
 H                  2.40966650   -1.28231094    1.11372820
 H                  3.49439278    0.04893904    1.43654422
 H                  1.87829599    0.05799913    2.10078487
 C                  2.47522881    1.95122499   -0.00281518
 H                  3.54496128    1.95127318   -0.02674085
 H                  2.09916026    2.46081567   -0.86524766
 H                  2.13823106    2.45038958    0.88158700
 C                 -2.30671198    0.05004364    1.25754527
 H                 -2.19909625    1.10675919    1.12842871
 H                 -3.33884122   -0.18736624    1.41001094
 H                 -1.73886515   -0.26502874    2.10794481
 C                 -2.30671125   -2.12760172   -0.00028110
 H                 -3.37567767   -2.12795805   -0.04729891
 H                 -1.91217102   -2.64522995   -0.84957435
 H                 -1.98895125   -2.61842252    0.89583470
 C                 -2.30671125    0.05053113   -1.25726412
 H                 -1.77828067   -0.30682869   -2.11630724
 H                 -3.35274358   -0.14010208   -1.37716138
 H                 -2.14577569    1.10309623   -1.15187699
 C                  2.47522881   -0.22909839   -1.25599473
 H                  1.97641932    0.15622611   -2.12064156
 H                  3.52930222   -0.07289083   -1.35309485
 H                  2.27663106   -1.27672641   -1.16691907

 1 2 1.0 3 2.0 5 1.0
 2
 3 4 1.0 6 1.0
 4
 5 15 1.0 19 1.0 23 1.0
 6 7 1.0 11 1.0 27 1.0
 7 8 1.0 9 1.0 10 1.0
 8
 9
 10
 11 12 1.0 13 1.0 14 1.0
 12
 13
 14
 15 16 1.0 17 1.0 18 1.0
 16
 17
 18
 19 20 1.0 21 1.0 22 1.0
 20
 21
 22
 23 24 1.0 25 1.0 26 1.0
 24
 25
 26
 27 28 1.0 29 1.0 30 1.0
 28
 29
 30

