%chk=E:\hetanjin\GithubFiles\DBGCWebapp\demoForLocal\python\Gjfs\apple_006.chk
# hf/3-21g geom=connectivity

Title Card Required

0 1
 C                 -3.29391892   -1.28378376    0.00000000
 H                 -2.93726449   -2.29259377    0.00000000
 H                 -2.93724608   -0.77938557   -0.87365150
 H                 -4.36391892   -1.28377058    0.00000000
 C                 -2.78057670   -0.55782749    1.25740497
 H                 -3.13563304    0.45154560    1.25642745
 C                 -1.24057930   -0.56028384    1.25881364
 H                 -0.88231082   -0.05734196    0.38497547
 C                 -0.72723682    0.16614147    2.51594759
 H                 -1.08222519    1.17553798    2.51455266
 C                  0.81276036    0.16358206    2.51741591
 H                  1.17109631    0.66646861    1.64357355
 H                  1.16943340    0.66831359    3.39087479
 H                  1.16774895   -0.84581436    2.51881957
 C                 -3.29621635   -1.28215776    2.51480761
 H                 -2.68976512   -2.14307162    2.70439725
 H                 -3.24704515   -0.61953397    3.35350417
 H                 -4.31010778   -1.58713591    2.36017093
 C                 -1.24297390   -0.55765033    3.77362031
 H                 -2.18798068   -0.14552843    4.06000768
 H                 -1.35768229   -1.60046133    3.56317507
 H                 -0.54159535   -0.42985530    4.57151539
 C                 -0.72956379   -2.01302585    1.26076201
 H                  0.33936026   -2.01517543    1.21283740
 H                 -1.04734286   -2.50169400    2.15804675
 C                 -1.29963567   -2.75935670    0.04026690
 H                 -2.20859533   -3.25195729    0.31601498
 H                 -1.49702862   -2.06006862   -0.74518341
 H                 -0.58937175   -3.48459855   -0.29803685

 1 2 1.0 3 1.0 4 1.0 5 1.0
 2
 3
 4
 5 6 1.0 7 1.0 15 1.0
 6
 7 8 1.0 9 1.0 23 1.0
 8
 9 10 1.0 11 1.0 19 1.0
 10
 11 12 1.0 13 1.0 14 1.0
 12
 13
 14
 15 16 1.0 17 1.0 18 1.0
 16
 17
 18
 19 20 1.0 21 1.0 22 1.0
 20
 21
 22
 23 24 1.0 25 1.0 26 1.0
 24
 25
 26 27 1.0 28 1.0 29 1.0
 27
 28
 29

