%chk=E:\hetanjin\GithubFiles\DBGCWebapp\demoForLocal\python\Gjfs\apple_008.chk
# hf/3-21g geom=connectivity

Title Card Required

0 1
 C                 -3.12500000   -0.37162162    0.00000000
 H                 -2.76832716    0.13277657   -0.87365150
 C                 -4.66500000   -0.37160264    0.00000000
 H                 -5.02167258   -0.87769437    0.87267166
 H                 -5.02165392    0.63720564    0.00195600
 H                 -5.02167305   -0.87430604   -0.87462771
 C                 -2.61168428   -1.82355377    0.00000000
 H                 -2.96866554   -2.32806100   -0.87346255
 H                 -1.54168435   -1.82356644   -0.00037739
 H                 -2.96804870   -2.32784346    0.87383998
 C                 -2.61165778    0.35433466    1.25740497
 H                 -2.96810395    1.36321825    1.25727746
 H                 -2.96853891   -0.14991658    2.13105624
 C                 -1.07165783    0.35399728    1.25758833
 H                 -0.71524238   -0.56477910    1.67438324
 H                 -0.71484988    0.45234989    0.25363870
 C                 -0.55816696    1.53445672    2.10283542
 H                 -0.98174341    1.48146564    3.08399541
 H                 -0.84450845    2.45570809    1.64001314
 C                  0.97707472    1.46527004    2.20206334
 H                  1.26284213    0.55080212    2.67849320
 H                  1.40002976    1.50308890    1.21993363
 C                  1.49228532    2.65780261    3.02912084
 H                  1.21139936    3.57222625    2.54971238
 H                  1.06491248    2.62313942    4.00945288
 C                  3.02685883    2.58413738    3.13522262
 H                  3.45419727    2.61802910    2.15484860
 H                  3.30771377    1.67006514    3.61531890
 C                  3.54216272    3.77727400    3.96135028
 H                  4.60833444    3.72571768    4.03564567
 H                  3.26189586    4.69133913    3.48089693
 H                  3.11429350    3.74376235    4.94150583

 1 2 1.0 3 1.0 7 1.0 11 1.0
 2
 3 4 1.0 5 1.0 6 1.0
 4
 5
 6
 7 8 1.0 9 1.0 10 1.0
 8
 9
 10
 11 12 1.0 13 1.0 14 1.0
 12
 13
 14 15 1.0 16 1.0 17 1.0
 15
 16
 17 18 1.0 19 1.0 20 1.0
 18
 19
 20 21 1.0 22 1.0 23 1.0
 21
 22
 23 24 1.0 25 1.0 26 1.0
 24
 25
 26 27 1.0 28 1.0 29 1.0
 27
 28
 29 30 1.0 31 1.0 32 1.0
 30
 31
 32

