%chk=E:\hetanjin\GithubFiles\DBGCWebapp\demoForLocal\python\Gjfs\apple_021.chk
# hf/3-21g geom=connectivity

Title Card Required

0 1
 C                 -1.53703044   -0.40540540   -0.02012083
 H                 -1.00386669   -1.33311032   -0.02012083
 C                 -0.86175613    0.76957190   -0.02012083
 H                 -1.39491988    1.69727682   -0.02012083
 C                 -3.07703044   -0.40540540   -0.02012083
 C                 -3.59036404    0.31811797    1.23868914
 H                 -3.54465589    1.37611746    1.08556226
 H                 -4.60280970    0.02862441    1.42855033
 H                 -2.98029320    0.05231959    2.07658221
 C                 -3.59036331   -1.85732876   -0.02293601
 H                 -4.66003992   -1.85739209   -0.04924112
 H                 -3.21237992   -2.36759885   -0.88412878
 H                 -3.25533628   -2.35579881    0.86260591
 C                 -3.59036331    0.32299462   -1.27611556
 H                 -3.09254065   -0.06327715   -2.14090843
 H                 -4.64467222    0.16791554   -1.37246498
 H                 -3.39054326    1.37044144   -1.18764455
 C                  0.67824387    0.76957190   -0.02012083
 C                  1.19157675    2.22149647   -0.01802495
 H                  2.26157654    2.22149558   -0.01735399
 H                  0.83545750    2.72696635   -0.89128280
 H                  0.83436239    2.72483181    0.85601821
 C                  1.19157748    0.04179482    1.23623467
 H                  0.65728226    0.39199869    2.09459699
 H                  1.03833307   -1.01141506    1.12593919
 H                  2.23578385    0.23913777    1.36108978
 C                  1.19157675    0.04542437   -1.27857215
 H                  0.68927417    0.43029916   -2.14139514
 H                  2.24480033    0.20596877   -1.37779705
 H                  0.99732193   -1.00313611   -1.19090238

 1 2 1.0 3 2.0 5 1.0
 2
 3 4 1.0 18 1.0
 4
 5 6 1.0 10 1.0 14 1.0
 6 7 1.0 8 1.0 9 1.0
 7
 8
 9
 10 11 1.0 12 1.0 13 1.0
 11
 12
 13
 14 15 1.0 16 1.0 17 1.0
 15
 16
 17
 18 19 1.0 23 1.0 27 1.0
 19 20 1.0 21 1.0 22 1.0
 20
 21
 22
 23 24 1.0 25 1.0 26 1.0
 24
 25
 26
 27 28 1.0 29 1.0 30 1.0
 28
 29
 30

