%chk=E:\hetanjin\GithubFiles\DBGCWebapp\demoForLocal\python\Gjfs\banana_093.chk
# hf/3-21g geom=connectivity

Title Card Required

0 1
 C                 -1.53061227   -1.22448978    0.00000000
 C                 -0.85533796   -0.04951248    0.00000000
 C                 -1.62269513    1.28568899    0.00000000
 H                 -2.23759391    1.34367215   -0.87374908
 H                 -2.23788748    1.34350401    0.87355355
 C                 -0.61964049    2.45422710    0.00028147
 H                 -0.00445934    2.39642133   -0.87328057
 H                 -1.15280424    3.38193202    0.00029855
 H                 -0.00473058    2.39623394    0.87402205
 C                  0.68466204   -0.04951248    0.00000000
 C                  1.19799564   -1.50143558    0.00281537
 H                  2.26799515   -1.50143322    0.00384325
 H                  0.84048968   -2.00444090    0.87692928
 H                  0.84216878   -2.00723591   -0.87037033
 C                  1.19799491    0.67888722    1.25599492
 H                  1.58685497    1.63647901    0.97903676
 H                  0.39209029    0.80774697    1.94795800
 H                  1.97170571    0.09853133    1.71366144
 C                  1.19799491    0.67401085   -1.25881029
 H                  0.40217824    0.76306545   -1.96848987
 H                  1.54852617    1.64906017   -0.99177722
 H                  1.99994656    0.11261445   -1.69079135
 C                 -3.07061227   -1.22448978    0.00000000
 C                 -3.58394515   -2.67641585   -0.00016453
 H                 -3.22736112   -3.18088797    0.87348055
 H                 -4.65394514   -2.67641584   -0.00026639
 H                 -3.22719535   -3.18074912   -0.87382210
 C                 -3.58394588   -0.49866952    1.25748700
 H                 -2.81637053   -0.49050832    2.00291405
 H                 -3.84757877    0.50738103    1.00597162
 H                 -4.44455506   -1.00857782    1.63728347
 C                 -3.58394515   -0.49838393   -1.25732242
 H                 -3.80003514    0.52161711   -1.01689988
 H                 -2.83485942   -0.53394120   -2.02054339
 H                 -4.47360711   -0.97832582   -1.60811775
 C                 -0.76325510   -2.55969125    0.00000000
 H                 -0.14768899   -2.61729088   -0.87330444
 H                 -0.14873075   -2.61788959    0.87399816
 C                 -1.76630889   -3.72822970   -0.00099843
 H                 -2.38153908   -3.67091827    0.87256165
 H                 -2.38116930   -3.66974275   -0.87474093
 H                 -1.23314493   -4.65593436   -0.00150973

 1 2 2.0 23 1.0 36 1.0
 2 3 1.0 10 1.0
 3 4 1.0 5 1.0 6 1.0
 4
 5
 6 7 1.0 8 1.0 9 1.0
 7
 8
 9
 10 11 1.0 15 1.0 19 1.0
 11 12 1.0 13 1.0 14 1.0
 12
 13
 14
 15 16 1.0 17 1.0 18 1.0
 16
 17
 18
 19 20 1.0 21 1.0 22 1.0
 20
 21
 22
 23 24 1.0 28 1.0 32 1.0
 24 25 1.0 26 1.0 27 1.0
 25
 26
 27
 28 29 1.0 30 1.0 31 1.0
 29
 30
 31
 32 33 1.0 34 1.0 35 1.0
 33
 34
 35
 36 37 1.0 38 1.0 39 1.0
 37
 38
 39 40 1.0 41 1.0 42 1.0
 40
 41
 42

