%chk=E:\hetanjin\GithubFiles\DBGCWebapp\demoForLocal\python\Gjfs\c13h28_26.chk
# hf/3-21g geom=connectivity

Title Card Required

0 1
 C                 -3.36930451   -0.07194245    0.00000000
 H                 -3.01265008   -1.08075245    0.00000000
 H                 -3.01263167    0.43245574   -0.87365150
 H                 -4.43930451   -0.07192926    0.00000000
 C                 -2.85596229    0.65401383    1.25740497
 H                 -3.21101885    1.66338684    1.25642758
 C                 -1.31596489    0.65155693    1.25881307
 H                 -0.95769655    1.15449821    0.38497449
 H                 -0.96090902   -0.35781590    1.26016721
 C                 -0.80262167    1.37798272    2.51594643
 H                 -1.16095848    0.87508912    3.38978438
 H                 -1.15760954    2.38737941    2.51455102
 C                  0.73737550    1.37542254    2.51741431
 H                  1.09571145    1.87830855    1.64357164
 H                  1.09236359    0.36602594    2.51881828
 C                  1.25071874    2.10185882    3.77454161
 H                  0.89573233    3.11125600    3.77313689
 C                  2.79071590    2.09929643    3.77601076
 H                  3.14905330    2.60218296    2.90216898
 H                  3.14570255    1.08989932    3.77741384
 C                  3.30405914    2.82573050    5.03313933
 H                  2.94572233    2.32284265    5.90698059
 H                  2.94907128    3.83512718    5.03173727
 C                  4.84405631    2.82317030    5.03460721
 H                  5.20239227    3.32605937    4.16076631
 H                  5.19904440    1.81377370    5.03600766
 C                  5.35739954    3.54960219    6.29173706
 H                  4.99906417    3.04671180    7.16557744
 H                  5.00241024    4.55899837    6.29033763
 C                  6.89739672    3.54704419    6.29320366
 H                  7.25573124    4.04993580    5.41936363
 H                  7.25407026    4.05177132    7.16666489
 H                  7.25238625    2.53764809    6.29460148
 C                 -3.37160173   -0.07031582    2.51480806
 H                 -2.74734503   -0.91443278    2.72137556
 H                 -3.35012569    0.60142332    3.34739758
 H                 -4.37560332   -0.40120578    2.34930085
 C                  0.73497958    1.37807999    5.03222095
 H                 -0.32967935    1.47056435    5.08558758
 H                  1.00100843    0.34288130    4.98229786
 H                  1.17527161    1.81790927    5.90261921

 1 2 1.0 3 1.0 4 1.0 5 1.0
 2
 3
 4
 5 6 1.0 7 1.0 34 1.0
 6
 7 8 1.0 9 1.0 10 1.0
 8
 9
 10 11 1.0 12 1.0 13 1.0
 11
 12
 13 14 1.0 15 1.0 16 1.0
 14
 15
 16 17 1.0 18 1.0 38 1.0
 17
 18 19 1.0 20 1.0 21 1.0
 19
 20
 21 22 1.0 23 1.0 24 1.0
 22
 23
 24 25 1.0 26 1.0 27 1.0
 25
 26
 27 28 1.0 29 1.0 30 1.0
 28
 29
 30 31 1.0 32 1.0 33 1.0
 31
 32
 33
 34 35 1.0 36 1.0 37 1.0
 35
 36
 37
 38 39 1.0 40 1.0 41 1.0
 39
 40
 41

