%mem=15GB
%nprocshared=6
#p M062X/def2TZVP EmpiricalDispersion=GD3

using B3LYP/6-31G(d) to do opt and freq calc.

0 1
C	-3.437823	-2.485214	-1.151925
H	-2.896460	-2.696489	-2.082304
H	-4.254807	-1.795200	-1.395839
H	-3.885158	-3.423494	-0.805007
C	-2.505943	-1.882585	-0.097896
C	-1.849818	-0.578115	-0.564109
C	-0.928009	0.070380	0.488918
C	0.123353	1.022675	-0.145938
C	1.282929	0.242337	-0.796784
C	2.260798	-0.386542	0.201110
C	3.392051	-1.167210	-0.475027
H	2.958999	-1.959337	-1.101973
C	4.373935	-1.783673	0.524148
H	3.862769	-2.480004	1.200211
H	-1.718451	-2.606389	0.155030
H	4.844754	-1.009793	1.142659
H	5.171953	-2.336638	0.016031
H	1.850457	0.913076	-1.454853
H	2.691903	0.406126	0.830268
H	3.933636	-0.499680	-1.159980
H	-3.069513	-1.711487	0.828564
H	-2.631719	0.136097	-0.858509
H	0.560493	1.616010	0.670511
H	0.875543	-0.541153	-1.451760
H	1.725716	-1.058073	0.886290
H	-1.280039	-0.792985	-1.477780
C	-1.746117	0.767773	1.594931
H	-2.618125	0.149332	1.840962
H	-2.151085	1.713288	1.208894
C	-0.960208	1.031122	2.882731
H	-1.590547	1.512609	3.638789
H	-0.584489	0.092810	3.308884
H	-0.096807	1.683253	2.711471
H	-0.373626	-0.745846	0.975124
C	-0.507697	2.022967	-1.136775
H	-1.481699	2.354474	-0.755846
H	-0.712378	1.515085	-2.088580
C	0.357163	3.260947	-1.392233
H	1.339077	2.998043	-1.801377
H	-0.124262	3.940130	-2.104809
H	0.526180	3.817058	-0.461986





