%mem=15GB
%nprocshared=6
#p M062X/def2TZVP EmpiricalDispersion=GD3

using B3LYP/6-31G(d) to do opt and freq calc.

0 1
C	4.304616	-0.880617	0.922782
H	4.229159	-0.553019	1.966732
H	5.132813	-0.332858	0.458991
H	4.575950	-1.942724	0.922818
C	2.984449	-0.658783	0.171466
C	2.446877	0.784610	0.357554
C	1.057559	1.003875	-0.270050
C	-0.032502	0.029930	0.189896
C	-1.418962	0.443014	-0.319156
C	-2.599703	-0.488589	0.045435
C	-3.907421	0.072115	-0.571040
C	-4.372122	1.444858	-0.074108
H	-3.642142	2.231497	-0.291493
H	-4.552661	1.445770	1.006173
H	-5.311040	1.727223	-0.563338
C	3.125486	-1.076319	-1.298879
H	2.173474	-1.012894	-1.836419
H	3.851105	-0.447090	-1.827325
H	3.477026	-2.111982	-1.371021
H	2.244634	-1.328171	0.631208
C	3.415687	1.864650	-0.145540
H	3.577790	1.785735	-1.226865
H	3.008695	2.863285	0.050806
H	4.391945	1.804222	0.345318
H	0.737791	2.028031	-0.029977
H	1.136532	0.969509	-1.365928
H	-3.782632	0.111136	-1.662452
H	2.332904	0.926867	1.443972
H	0.205230	-0.981569	-0.157714
H	-0.034051	-0.012895	1.287457
H	-1.378596	0.533072	-1.415165
H	-1.630721	1.451284	0.059600
H	-4.708243	-0.656983	-0.383818
C	-2.745200	-0.613681	1.572814
H	-1.897048	-1.150780	2.010280
H	-2.801152	0.366952	2.058317
H	-3.655156	-1.168968	1.831375
C	-2.376500	-1.890156	-0.551749
H	-2.247898	-1.838642	-1.640092
H	-1.490581	-2.376656	-0.130911
H	-3.236715	-2.538797	-0.347093





