%mem=15GB
%nprocshared=6
#p M062X/def2TZVP EmpiricalDispersion=GD3

using B3LYP/6-31G(d) to do opt and freq calc.

0 1
C	-4.315055	-1.072704	1.053299
H	-4.831197	-1.747531	0.359508
H	-4.733217	-0.068927	0.908425
H	-4.557714	-1.391791	2.073151
C	-2.804317	-1.079218	0.805790
C	-2.448693	-0.636803	-0.619207
C	-0.944535	-0.621050	-0.966371
C	-0.091535	0.306962	-0.060047
C	1.382549	0.363255	-0.545944
C	2.361395	-0.399029	0.353321
C	3.803720	-0.371068	-0.159035
H	3.836538	-0.806818	-1.167721
C	4.778382	-1.118315	0.754333
H	4.493194	-2.172588	0.855961
H	-2.409930	-2.085836	0.993373
H	4.789070	-0.681380	1.760359
H	2.325309	0.031744	1.364676
H	1.723298	1.403120	-0.609722
H	5.802064	-1.085161	0.364776
H	-2.952004	-1.309179	-1.328728
H	-0.086406	-0.148300	0.941799
H	1.454494	-0.024499	-1.570797
H	2.033509	-1.442151	0.458977
H	4.128530	0.673341	-0.268982
H	-0.865889	-0.234900	-1.993480
C	-0.703257	1.720947	0.125135
H	-1.726155	1.585387	0.497701
C	0.042404	2.518932	1.204390
H	0.083782	1.962172	2.148281
H	1.072436	2.749049	0.908560
H	-0.461607	3.472920	1.398340
C	-0.796500	2.519573	-1.181991
H	0.194088	2.693180	-1.618435
H	-1.404300	2.003051	-1.932431
H	-1.252434	3.500200	-1.003017
H	-2.316142	-0.420166	1.535103
H	-2.881306	0.355704	-0.798359
C	-0.385216	-2.053331	-0.982569
H	0.632605	-2.090668	-1.382170
H	-0.358335	-2.484250	0.024948
H	-1.008330	-2.704617	-1.606715





