%mem=15GB
%nprocshared=6
#p M062X/def2TZVP EmpiricalDispersion=GD3

using B3LYP/6-31G(d) to do opt and freq calc.

0 1
C	-4.062069	-2.070149	-0.663894
H	-4.602499	-1.116036	-0.700998
H	-4.293313	-2.545108	0.295394
H	-4.467324	-2.712715	-1.453553
C	-2.557450	-1.855299	-0.850158
C	-1.917428	-0.874591	0.150045
C	-0.462270	-0.591971	-0.265933
C	0.313508	0.433180	0.584035
C	1.736549	0.651333	0.033823
C	2.656855	-0.570579	0.125879
C	4.092668	-0.272657	-0.318211
H	4.079914	0.107331	-1.349497
C	5.010741	-1.494276	-0.233605
H	1.682536	0.979310	-1.013759
H	2.260285	-1.390987	-0.486622
H	4.642602	-2.308801	-0.869369
H	-2.376204	-1.480436	-1.866949
H	5.064712	-1.876291	0.793192
H	4.501397	0.539202	0.299665
H	2.667124	-0.940709	1.162024
H	0.082029	-1.545852	-0.253910
H	0.428190	0.016620	1.595506
H	2.200947	1.480129	0.587928
H	6.030618	-1.254667	-0.554914
H	-0.455940	-0.258372	-1.313285
H	-2.486352	0.065064	0.090755
C	-0.435149	1.772640	0.744897
H	-1.368533	1.603119	1.298191
H	0.172309	2.432457	1.380949
C	-0.766974	2.513980	-0.555959
H	0.154457	2.711693	-1.118192
H	-1.387222	1.877055	-1.199604
C	-1.498019	3.834396	-0.299706
H	-0.890066	4.508919	0.315559
H	-1.731045	4.354331	-1.235772
H	-2.442069	3.664516	0.232599
H	-2.036169	-2.821713	-0.785374
C	-2.004257	-1.392336	1.591498
H	-3.038628	-1.592357	1.888348
H	-1.437559	-2.326659	1.699706
H	-1.594422	-0.671073	2.305708





