%chk=E:\hetanjin\GithubFiles\DBGCWebapp\demoForLocal\python\Gjfs\doctor_005.chk
# hf/3-21g geom=connectivity

Title Card Required

0 1
 C                  1.03211008   -0.50458715    0.00000000
 C                  1.70738439    0.67039015    0.00000000
 C                  0.94002722    2.00559162    0.00000000
 H                  1.63695482    2.81749798    0.00000189
 H                  0.32498301    2.06349119   -0.87365225
 H                  0.32498029    2.06349022    0.87365040
 C                  1.79946725   -1.83978862    0.00000000
 C                  0.79641261   -3.00832673    0.00028110
 H                  1.32957636   -3.93603165    0.00028844
 H                  0.18150891   -2.95033851    0.87402637
 H                  0.18122526   -2.95051602   -0.87327625
 C                  2.68488416   -1.92299825    1.25726412
 H                  3.53391733   -1.28271773    1.13859005
 H                  2.12082044   -1.61266605    2.11191378
 H                  3.01510672   -2.93142546    1.39484178
 C                  2.68446186   -1.92324179   -1.25754527
 H                  3.06498779   -2.91797656   -1.36051494
 H                  2.10301819   -1.67272252   -2.12013634
 H                  3.50027824   -1.23700992   -1.16573314
 H                 -0.03788992   -0.50458715    0.00000000
 C                  3.24738439    0.67039015    0.00000000
 H                  3.60405074    0.15839931    0.86922638
 H                  3.60405074    0.17361367   -0.87801039
 H                  3.60405125    1.67915751    0.00878401

 1 2 2.0 7 1.0 20 1.0
 2 3 1.0 21 1.0
 3 4 1.0 5 1.0 6 1.0
 4
 5
 6
 7 8 1.0 12 1.0 16 1.0
 8 9 1.0 10 1.0 11 1.0
 9
 10
 11
 12 13 1.0 14 1.0 15 1.0
 13
 14
 15
 16 17 1.0 18 1.0 19 1.0
 17
 18
 19
 20
 21 22 1.0 23 1.0 24 1.0
 22
 23
 24

