%chk=E:\hetanjin\GithubFiles\DBGCWebapp\demoForLocal\python\Gjfs\doctor_001.chk
# hf/3-21g geom=connectivity

Title Card Required

0 1
 C                  1.29937846   -1.21895798    1.68259719
 C                  1.97465277   -0.04398068    1.68259719
 H                  1.44148903    0.88372424    1.68259719
 C                  3.51465277   -0.04398068    1.68259719
 H                  3.87131912   -0.54668868    2.55722499
 H                  3.87131963   -0.55007660    0.80992562
 C                  2.06673563   -2.55415945    1.68259719
 H                  2.68196359   -2.61195342    2.55612705
 H                  1.36980806   -3.36606579    1.68284004
 H                  2.68159879   -2.61216366    0.80882445
 C                  4.02798565    1.40794268    1.67978163
 H                  3.67145371    1.91399076    2.55253607
 H                  5.09798564    1.40794236    1.67961599
 H                  3.67118378    1.91069838    0.80523654
 C                 -0.24062154   -1.21895798    1.68259719
 C                 -0.75395514   -2.67087923    1.68624374
 H                 -1.82395433   -2.67087566    1.68756273
 H                 -0.39836555   -3.17709528    0.81320231
 H                 -0.39621222   -3.17346874    2.56049987
 C                 -0.75395441   -0.49615539    0.42337291
 H                 -1.78906314   -0.72481742    0.27789578
 H                 -0.63578751    0.56027484    0.54540469
 H                 -0.19367875   -0.82171683   -0.42809695
 C                 -0.75395441   -0.48983938    2.93817492
 H                 -1.80330825   -0.66695607    3.04946825
 H                 -0.23691908   -0.85678288    3.80010701
 H                 -0.57830209    0.56081602    2.83733104

 1 2 2.0 7 1.0 15 1.0
 2 3 1.0 4 1.0
 3
 4 5 1.0 6 1.0 11 1.0
 5
 6
 7 8 1.0 9 1.0 10 1.0
 8
 9
 10
 11 12 1.0 13 1.0 14 1.0
 12
 13
 14
 15 16 1.0 20 1.0 24 1.0
 16 17 1.0 18 1.0 19 1.0
 17
 18
 19
 20 21 1.0 22 1.0 23 1.0
 21
 22
 23
 24 25 1.0 26 1.0 27 1.0
 25
 26
 27

