%chk=E:\hetanjin\GithubFiles\DBGCWebapp\demoForLocal\python\Gjfs\ic4h9coc3h6s.chk
# hf/3-21g geom=connectivity

Title Card Required

0 2
 C                 -1.31596489    0.02805572    1.25881307
 H                 -0.95769655    0.53099701    0.38497449
 C                 -0.80262167    0.75448152    2.51594643
 H                 -1.16095848    0.25158792    3.38978438
 H                 -1.15760954    1.76387821    2.51455102
 C                  0.73737550    0.75192134    2.51741431
 C                  2.95537369   -0.29279661    1.95766798
 H                  3.46664946    0.64711089    1.94924306
 O                  1.37122315    1.43716157    3.36136545
 C                  1.50431732   -0.09211650    1.48252283
 H                  1.34799305    0.47073511    0.58605153
 H                  1.18531552   -1.10197660    1.32981256
 C                  3.67306363   -1.27603376    1.01439397
 H                  4.71002997   -1.32622940    1.27339438
 H                  3.23407249   -2.24710923    1.11030648
 H                  3.57374291   -0.93792062    0.00408961
 C                 -0.80494990   -1.42468647    1.26076202
 H                 -0.11151878   -1.55993321    0.45716909
 H                 -0.31748992   -1.63005951    2.19087206
 H                 -1.63078532   -2.09343911    1.13559905
 C                 -2.85596229    0.03051263    1.25740497
 H                 -3.21102632    1.03985119    1.26547949
 H                 -3.21261848   -0.46602946    0.37925788
 H                 -3.21423979   -0.48057680    2.12649923

 1 2 1.0 3 1.0 17 1.0 21 1.0
 2
 3 4 1.0 5 1.0 6 1.0
 4
 5
 6 9 2.0 10 1.0
 7 8 1.0 10 1.0 13 1.0
 8
 9
 10 11 1.0 12 1.0
 11
 12
 13 14 1.0 15 1.0 16 1.0
 14
 15
 16
 17 18 1.0 19 1.0 20 1.0
 18
 19
 20
 21 22 1.0 23 1.0 24 1.0
 22
 23
 24

