%chk=E:\hetanjin\GithubFiles\DBGCWebapp\demoForLocal\python\Gjfs\ic5h11cochch3.chk
# hf/3-21g geom=connectivity

Title Card Required

0 2
 C                 -3.36930451   -0.69544365    0.00000000
 H                 -3.01265008   -1.70425365    0.00000000
 H                 -3.01263167   -0.19104546   -0.87365150
 H                 -4.43930451   -0.69543046    0.00000000
 C                 -2.85596229    0.03051263    1.25740497
 H                 -3.21101885    1.03988564    1.25642758
 C                 -1.31596489    0.02805572    1.25881307
 H                 -0.95769655    0.53099701    0.38497449
 H                 -0.96090902   -0.98131710    1.26016721
 C                 -0.80262167    0.75448152    2.51594643
 H                 -1.16095848    0.25158792    3.38978438
 H                 -1.15760954    1.76387821    2.51455102
 C                 -3.37160173   -0.69381702    2.51480806
 H                 -2.76040058   -1.55036651    2.70885992
 H                 -3.32970880   -0.02872245    3.35194258
 H                 -4.38296465   -1.00562988    2.35727150
 C                  0.73737550    0.75192134    2.51741431
 C                  1.50431732   -0.09211650    1.48252283
 H                  1.50449823    0.41351242    0.53952794
 C                  2.95537369   -0.29279661    1.95766798
 H                  3.45402839   -0.97595489    1.30227630
 H                  3.46664946    0.64711089    1.94924306
 H                  2.95364428   -0.68897936    2.95161779
 O                  1.37122315    1.43716157    3.36136545

 1 2 1.0 3 1.0 4 1.0 5 1.0
 2
 3
 4
 5 6 1.0 7 1.0 13 1.0
 6
 7 8 1.0 9 1.0 10 1.0
 8
 9
 10 11 1.0 12 1.0 17 1.0
 11
 12
 13 14 1.0 15 1.0 16 1.0
 14
 15
 16
 17 18 1.0 24 2.0
 18 19 1.0 20 1.0
 19
 20 21 1.0 22 1.0 23 1.0
 21
 22
 23
 24

