%chk=F:\ResearchData\newGroupAdditivityFrog2\Template21\Gjfs\C21H44_1.chk
# hf/3-21g geom=connectivity

Title Card Required

0 1
 C                 -2.71517989   -0.44600938    0.00000000
 H                 -2.35852546   -1.45481939    0.00000000
 H                 -2.35850705    0.05838881   -0.87365150
 H                 -3.78517989   -0.44599620    0.00000000
 C                 -2.20183767    0.27994689    1.25740497
 H                 -2.55689423    1.28931991    1.25642758
 H                 -2.56010663   -0.22332111    2.13105517
 C                 -0.66184027    0.27748999    1.25881307
 H                 -0.30357194    0.78043128    0.38497449
 H                 -0.30678440   -0.73188283    1.26016721
 C                 -0.14849706    1.00391579    2.51594643
 H                 -0.50683386    0.50102218    3.38978438
 H                 -0.50348492    2.01331247    2.51455102
 C                  1.39150012    1.00135560    2.51741431
 H                  1.74983606    1.50424162    1.64357164
 H                  1.74648820   -0.00804099    2.51881828
 C                  1.90484335    1.72779188    3.77454161
 H                  1.54650511    1.22490659    4.64838375
 H                  1.54985694    2.73718907    3.77313689
 C                  3.44484052    1.72522949    3.77601076
 H                  3.80317792    2.22811602    2.90216898
 H                  3.79982716    0.71583239    3.77741384
 C                  3.95818376    2.45166356    5.03313933
 H                  3.59984695    1.94877571    5.90698059
 H                  3.60319590    3.46106024    5.03173727
 C                  5.49818093    2.44910337    5.03460721
 H                  5.85651689    2.95199244    4.16076631
 H                  5.85316901    1.43970677    5.03600766
 C                  6.01152416    3.17553525    6.29173706
 H                  5.65318879    2.67264486    7.16557744
 H                  5.65653486    4.18493143    6.29033763
 C                  7.55152134    3.17297725    6.29320366
 H                  7.90985586    3.67586886    5.41936363
 H                  7.90651086    2.16358116    6.29460148
 C                  8.06486456    3.89940695    7.55033477
 H                  7.70653063    3.39651403    8.42417428
 H                  7.70987382    4.90880263    7.54893798
 C                  9.60486174    3.89685115    7.55180011
 H                  9.96319483    4.39974530    6.67796095
 H                  9.95985271    2.88745556    7.55319529
 C                 10.11820496    4.62327867    8.80893248
 H                  9.75987246    4.12038320    9.68277112
 H                  9.76321278    5.63267384    8.80753832
 C                 11.65820215    4.62072506    8.81039655
 H                 12.01653380    5.12362175    7.93655826
 H                 12.01319456    3.61132997    8.81178909
 C                 12.17154536    5.34715039   10.06753018
 H                 11.81321430    4.84425238   10.94136795
 H                 11.81655174    6.35654506   10.06613866
 C                 13.71154255    5.34459898   10.06899298
 H                 14.06987277    5.84749822    9.19515557
 H                 14.06653641    4.33520440   10.07038289
 C                 14.22488576    6.07102213   11.32612788
 H                 13.86655613    5.56812159   12.19996477
 H                 13.86989069    7.08041629   11.32473899
 C                 15.76488296    6.06847291   11.32758940
 H                 16.12321173    6.57137467   10.45375285
 H                 16.11987825    5.05907883   11.32897668
 C                 16.27822617    6.79489389   12.58472555
 H                 15.91989798    6.29199082   13.45856158
 H                 15.92322967    7.80428755   12.58333929
 C                 17.81822337    6.79234686   12.58618580
 H                 18.17655072    7.29525116   11.71235013
 H                 18.17489690    7.29706640   13.45965142
 H                 18.17322011    5.78295328   12.58757044

 1 2 1.0 3 1.0 4 1.0 5 1.0
 2
 3
 4
 5 6 1.0 7 1.0 8 1.0
 6
 7
 8 9 1.0 10 1.0 11 1.0
 9
 10
 11 12 1.0 13 1.0 14 1.0
 12
 13
 14 15 1.0 16 1.0 17 1.0
 15
 16
 17 18 1.0 19 1.0 20 1.0
 18
 19
 20 21 1.0 22 1.0 23 1.0
 21
 22
 23 24 1.0 25 1.0 26 1.0
 24
 25
 26 27 1.0 28 1.0 29 1.0
 27
 28
 29 30 1.0 31 1.0 32 1.0
 30
 31
 32 33 1.0 34 1.0 35 1.0
 33
 34
 35 36 1.0 37 1.0 38 1.0
 36
 37
 38 39 1.0 40 1.0 41 1.0
 39
 40
 41 42 1.0 43 1.0 44 1.0
 42
 43
 44 45 1.0 46 1.0 47 1.0
 45
 46
 47 48 1.0 49 1.0 50 1.0
 48
 49
 50 51 1.0 52 1.0 53 1.0
 51
 52
 53 54 1.0 55 1.0 56 1.0
 54
 55
 56 57 1.0 58 1.0 59 1.0
 57
 58
 59 60 1.0 61 1.0 62 1.0
 60
 61
 62 63 1.0 64 1.0 65 1.0
 63
 64
 65

