%nprocshared=12
%mem=30GB
# opt freq b3lyp/6-311++g(d,p) geom=connectivity

Title Card Required

0 1
 C                 -2.46019102    0.66878980    0.00000000
 H                 -3.53019102    0.66878980    0.00000000
 C                 -1.78491671    1.84376710    0.00000000
 H                 -2.31808046    2.77147202    0.00000000
 C                 -0.24491671    1.84376710    0.00000000
 H                  0.11174964    1.33936561    0.87365225
 H                  0.11175014    1.33936277   -0.87365040
 C                  0.26841616    3.29569318   -0.00000272
 H                 -0.08809134    3.80003760   -0.87375274
 H                 -0.08841013    3.80015413    0.87354988
 H                  1.33841614    3.29569319    0.00019285
 C                 -1.69283385   -0.66641167    0.00000000
 H                 -1.07632036   -0.72346683    0.87267166
 H                 -2.38975980   -1.47831708    0.00195600
 H                 -1.07925784   -0.72515562   -0.87462771

 1 2 1.0 3 2.0 12 1.0
 2
 3 4 1.0 5 1.0
 4
 5 6 1.0 7 1.0 8 1.0
 6
 7
 8 9 1.0 10 1.0 11 1.0
 9
 10
 11
 12 13 1.0 14 1.0 15 1.0
 13
 14
 15

