%nprocshared=12
%mem=30GB
# opt freq b3lyp/6-311++g(d,p)

Title Card Required

0 1
 C                 -0.82006367    0.42993630    0.00000000
 C                  0.68105133    0.42993630    0.00000000
 C                 -0.06953367    1.72991130    0.00000000
 H                 -1.35665967    0.12006130   -0.91385800
 H                 -1.35665967    0.12006130    0.91385800
 H                  1.21761233    0.12016930   -0.91388800
 H                  1.21761233    0.12016930    0.91388800
 H                 -0.06975667    2.34943930   -0.91394400
 C                 -0.06984470    2.59400424    1.27473263
 H                 -0.94374552    3.21129480    1.28696889
 H                 -0.06956204    1.95909255    2.13600325
 C                  1.18720123    3.48345802    1.29226798
 H                  1.07251641    4.24849790    2.03149824
 H                  2.04345433    2.88623983    1.52691891
 H                  1.31903463    3.93363320    0.33057038

