%chk=F:\ResearchData\newGroupAdditivityFrog2\Template21\Gjfs\test_2.chk
# hf/3-21g geom=connectivity

Title Card Required

0 1
 C                 -3.41940522   -0.30516431    0.00000000
 H                 -3.06275079   -1.31397432    0.00000000
 H                 -3.06273238    0.19923388   -0.87365150
 H                 -4.48940522   -0.30515113    0.00000000
 C                 -2.90606300    0.42079196    1.25740497
 H                 -3.26289526   -0.08349385    2.13105625
 C                 -3.41914934    1.87280518    1.25726452
 H                 -3.06130840    2.37739112    0.38419930
 H                 -4.48914861    1.87334591    1.25613883
 C                 -2.90677298    2.59798502    2.51551118
 H                 -1.83677373    2.59742341    2.51664858
 H                 -3.26463275    2.09341264    3.38857653
 C                 -3.41934527    4.05017979    2.51555901
 H                 -4.48934454    4.05074049    2.51444136
 H                 -3.06150204    4.55474657    1.64248365
 C                 -2.90694507    4.77536804    3.77379112
 H                 -1.83694580    4.77481481    3.77490342
 H                 -3.26478042    4.27079592    4.64686663
 C                 -3.41952873    6.22755880    3.77384589
 H                 -4.48952801    6.22811113    3.77273865
 H                 -3.06169794    6.73212955    2.90076773
 C                 -2.90712197    6.95274937    5.03207399
 H                 -1.83712268    6.95219892    5.03317910
 H                 -3.26495013    6.44817700    5.90515229
 C                 -3.41970941    8.40493879    5.03213107
 H                 -4.48970870    8.40548833    5.03102789
 H                 -3.06188325    8.90951070    4.15905168
 C                 -1.36606303    0.42052920    1.25754524
 H                 -1.00920475    1.21045737    0.63019713
 H                 -1.00946227    0.56880110    2.25541865
 H                 -1.00952254   -0.51785350    0.88711738
 C                 -2.90729976    9.13013038    6.29035741
 H                 -3.26300419   10.13927571    6.29012601
 H                 -3.26556918    8.62587210    7.16343621
 H                 -1.83730113    9.12910999    6.29173181

 1 2 1.0 3 1.0 4 1.0 5 1.0
 2
 3
 4
 5 6 1.0 7 1.0 28 1.0
 6
 7 8 1.0 9 1.0 10 1.0
 8
 9
 10 11 1.0 12 1.0 13 1.0
 11
 12
 13 14 1.0 15 1.0 16 1.0
 14
 15
 16 17 1.0 18 1.0 19 1.0
 17
 18
 19 20 1.0 21 1.0 22 1.0
 20
 21
 22 23 1.0 24 1.0 25 1.0
 23
 24
 25 26 1.0 27 1.0 32 1.0
 26
 27
 28 29 1.0 30 1.0 31 1.0
 29
 30
 31
 32 33 1.0 34 1.0 35 1.0
 33
 34
 35

