%nprocshared=12
%mem=30GB
# opt freq b3lyp/6-311++g(d,p) geom=connectivity

Title Card Required

0 1
 C                 -2.46019102    0.66878980    0.00000000
 C                 -1.78491671    1.84376710    0.00000000
 C                 -0.24491671    1.84376710    0.00000000
 H                  0.11175014    1.33936277   -0.87365040
 H                 -3.53019102    0.66878980    0.00000000
 H                  0.11174964    1.33936561    0.87365225
 C                 -2.55227388    3.17896857    0.00000000
 H                 -2.29414033    3.73869445    0.87462793
 H                 -2.29120278    3.74038269   -0.87267179
 H                 -3.60464211    2.98553308   -0.00195613
 H                  0.11174964    2.85257289   -0.00000189
 C                 -1.69283385   -0.66641167    0.00000000
 H                 -2.38975980   -1.47831708    0.00195626
 H                 -1.07925792   -0.72515508   -0.87462780
 H                 -1.07632029   -0.72346737    0.87267157

 1 2 2.0 5 1.0 12 1.0
 2 3 1.0 7 1.0
 3 4 1.0 6 1.0 11 1.0
 4
 5
 6
 7 8 1.0 9 1.0 10 1.0
 8
 9
 10
 11
 12 13 1.0 14 1.0 15 1.0
 13
 14
 15

