%nprocshared=12
%mem=30GB
# opt freq b3lyp/6-311++g(d,p)

Title Card Required

0 1
 C                 -1.02707004    0.76433120    0.00000000
 C                  0.49478796    0.76433120    0.00000000
 C                  0.96356096    2.21219620    0.00000000
 C                 -0.26417904    3.10176420   -0.13318600
 C                 -1.49627604    2.20865120   -0.10359000
 H                 -1.41903204    0.16188620   -0.85750800
 H                 -1.41718504    0.29392020    0.93750400
 H                  0.88341496    0.22973320   -0.90328000
 H                  0.88815496    0.22359920    0.89683700
 H                  1.51049596    2.44388920    0.94858800
 H                  1.67552196    2.39537220   -0.84321600
 H                 -0.29985604    3.84783420    0.69979800
 H                 -0.22505804    3.67934920   -1.09092200
 H                 -2.14865404    2.47045320    0.76707400
 H                 -2.10802204    2.35627320   -1.02879300

