%nprocshared=12
%mem=30GB
# opt freq b3lyp/6-311++g(d,p)

Title Card Required

0 1
 C                 -0.61305731    1.17834393    0.00000000
 C                  0.93018969    1.17834393    0.00000000
 C                  0.93012869    2.72153393    0.00000000
 C                 -0.61310031    2.72153093   -0.00027000
 H                 -1.06605131    0.72523093   -0.90642000
 H                 -1.06571831    0.72537893    0.90664300
 H                  1.38309769    0.72553093   -0.90661500
 H                  1.38306969    0.72528893    0.90653000
 H                  1.38305469    3.17428793   -0.90665600
 H                 -1.06579931    3.17405993   -0.90723500
 H                 -1.06637031    3.17479393    0.90595900
 C                  1.55824990    3.35021705    1.25770477
 H                  2.61286432    3.16941809    1.25810688
 H                  1.37717005    4.40478335    1.25771927
 H                  1.12113700    2.91326179    2.13114762

